test/TEST190523/v_h17.csv
Bus, BasekV, Node1, Magnitude1, Angle1, pu1, Node2, Magnitude2, Angle2, pu2, Node3, Magnitude3, Angle3, pu3
"SOURCEBUS", 69, 1,    41804.8,   -0.2,    1.0494, 2,    41801.8, -120.3,    1.0493, 3,    41768.6,  119.7,    1.0485
"BUSMVMAI1", 12.8, 1,    7746.83,  -30.8,    1.0483, 2,    7753.35, -150.8,    1.0492, 3,    7734.19,   89.0,    1.0466
"BUSMVMAI136", 12.505, 1,    7746.81,  -30.8,     1.073, 2,    7753.29, -150.8,    1.0739, 3,     7734.1,   89.0,    1.0712
"BUSMVMAI3", 12.505, 1,    7728.15,  -31.4,    1.0704, 2,    7703.15, -151.2,    1.0669, 3,    7663.21,   87.9,    1.0614
"BUSMVMAI2", 12.505, 1,     7728.1,  -31.4,    1.0704, 2,    7703.01, -151.2,    1.0669, 3,    7663.02,   87.9,    1.0614
"BUSMVMAI4", 12.505, 1,    7727.58,  -31.5,    1.0703, 2,     7701.6, -151.2,    1.0667, 3,    7661.05,   87.9,    1.0611
"BUSMVMAI46", 12.505, 1,    7728.17,  -31.4,    1.0704, 2,    7703.21, -151.2,    1.0669, 3,    7663.29,   87.9,    1.0614
"BUSMVMAI5", 12.505, 1,    7726.85,  -31.5,    1.0702, 2,    7700.04, -151.2,    1.0665, 3,    7658.97,   87.9,    1.0608
"BUSMVMAI862", 12.505, 1,    7727.58,  -31.5,    1.0703, 0, 0, 0, 0, 0, 0, 0, 0
"BUSMVMAI6", 12.505, 1,    7726.71,  -31.5,    1.0702, 2,    7699.75, -151.2,    1.0664, 3,    7658.59,   87.9,    1.0607
"BUSMVMAI859", 12.505, 3,    7658.94,   87.9,    1.0608, 0, 0, 0, 0, 0, 0, 0, 0
"BUSMVMAI860", 12.505, 3,    7658.97,   87.9,    1.0608, 0, 0, 0, 0, 0, 0, 0, 0
"BUSMVMAI7", 12.505, 1,    7725.83,  -31.5,    1.0701, 2,    7698.47, -151.2,    1.0663, 3,    7656.89,   87.8,    1.0605
"BUSMVMAI8", 12.505, 1,    7726.29,  -31.5,    1.0701, 2,    7696.17, -151.3,     1.066, 3,    7655.55,   87.8,    1.0603
"BUSMVMAI9", 12.505, 1,    7725.83,  -31.5,    1.0701, 2,    7698.47, -151.2,    1.0663, 3,    7656.89,   87.8,    1.0605
"BUSMVMAI10", 12.505, 1,    7725.08,  -31.5,      1.07, 2,    7698.58, -151.2,    1.0663, 3,    7656.43,   87.8,    1.0604
"BUSMVMAI56", 12.505, 1,    7725.45,  -31.5,      1.07, 2,    7698.52, -151.2,    1.0663, 3,    7656.66,   87.8,    1.0605
"BUSMVMAI861", 12.505, 3,    7658.88,   87.9,    1.0608, 0, 0, 0, 0, 0, 0, 0, 0
"BUSMVMAI12", 12.505, 1,    7726.68,  -31.5,    1.0702, 2,    7694.29, -151.3,    1.0657, 3,    7654.45,   87.8,    1.0602
"BUSMVMAI51", 12.505, 1,    7726.29,  -31.5,    1.0701, 2,    7696.17, -151.3,     1.066, 3,    7655.55,   87.8,    1.0603
"BUSMVMAI2171", 12.505, 1,    7726.29,  -31.5,    1.0701, 0, 0, 0, 0, 0, 0, 0, 0
"BUSMVMAI863", 12.505, 3,    7658.83,   87.9,    1.0608, 0, 0, 0, 0, 0, 0, 0, 0
"BUSMVMAI2165", 12.505, 3,    7656.89,   87.8,    1.0605, 0, 0, 0, 0, 0, 0, 0, 0
"BUSMVMAI694", 12.505, 1,    7725.83,  -31.5,    1.0701, 2,    7698.47, -151.2,    1.0663, 3,    7656.89,   87.8,    1.0605
"BUSMVMAI122", 12.505, 1,    7725.04,  -31.5,    1.0699, 2,    7698.58, -151.2,    1.0663, 3,     7656.4,   87.8,    1.0604
"BUSMVMAI11", 12.505, 1,    7726.67,  -31.5,    1.0702, 2,    7694.28, -151.3,    1.0657, 3,    7654.46,   87.8,    1.0602
"BUSMVMAI13", 12.505, 1,    7726.67,  -31.5,    1.0702, 2,    7694.27, -151.3,    1.0657, 3,    7654.46,   87.8,    1.0602
"BUSMVMAI18", 12.505, 1,    7726.83,  -31.5,    1.0702, 2,    7693.61, -151.3,    1.0656, 3,    7654.03,   87.8,    1.0601
"BUSMVMAI14", 12.505, 1,    7726.67,  -31.5,    1.0702, 2,    7694.23, -151.3,    1.0657, 3,    7654.48,   87.8,    1.0602
"BUSMVMAI15", 12.505, 1,    7726.66,  -31.5,    1.0702, 2,    7694.19, -151.3,    1.0657, 3,     7654.5,   87.8,    1.0602
"BUSMVMAI16", 12.505, 1,    7726.66,  -31.5,    1.0702, 2,    7694.19, -151.3,    1.0657, 3,    7654.49,   87.8,    1.0602
"BUSMVMAI2166", 12.505, 2,    7694.19, -151.3,    1.0657, 0, 0, 0, 0, 0, 0, 0, 0
"BUSMVMAI2172", 12.505, 1,    7727.57,  -31.5,    1.0703, 0, 0, 0, 0, 0, 0, 0, 0
"BUSMVMAI864", 12.505, 3,    7658.79,   87.9,    1.0608, 0, 0, 0, 0, 0, 0, 0, 0
"BUSMVMAI865", 12.505, 3,    7658.73,   87.9,    1.0608, 0, 0, 0, 0, 0, 0, 0, 0
"BUSMVMAI17", 12.505, 1,    7726.66,  -31.5,    1.0702, 2,    7694.19, -151.3,    1.0657, 3,    7654.49,   87.8,    1.0602
"BUSMVMAI695", 12.505, 1,    7726.66,  -31.5,    1.0702, 2,    7694.19, -151.3,    1.0657, 3,    7654.49,   87.8,    1.0602
"BUSMVMAI866", 12.505, 3,    7658.73,   87.9,    1.0608, 0, 0, 0, 0, 0, 0, 0, 0
"BUSMVMAI2176", 12.505, 3,    7658.73,   87.9,    1.0608, 0, 0, 0, 0, 0, 0, 0, 0
"BUSMVMAI2177", 12.505, 3,    7658.73,   87.9,    1.0608, 0, 0, 0, 0, 0, 0, 0, 0
"BUSMVMAI2178", 12.505, 3,    7658.69,   87.9,    1.0608, 0, 0, 0, 0, 0, 0, 0, 0
"BUSMVMAI19", 12.505, 1,    7727.12,  -31.5,    1.0702, 2,    7692.35, -151.3,    1.0654, 3,    7653.29,   87.8,      1.06
"BUSMVMAI20", 12.505, 1,    7727.54,  -31.5,    1.0703, 2,    7690.58, -151.3,    1.0652, 3,    7652.24,   87.7,    1.0599
"BUSMVMAI53", 12.505, 1,    7727.12,  -31.5,    1.0702, 2,    7692.35, -151.3,    1.0654, 3,    7653.29,   87.8,      1.06
"BUSMVMAI21", 12.505, 1,    7727.98,  -31.5,    1.0704, 2,    7688.72, -151.3,    1.0649, 3,    7651.13,   87.7,    1.0597
"BUSMVMAI22", 12.505, 1,    7728.49,  -31.5,    1.0704, 2,    7686.54, -151.3,    1.0646, 3,    7649.85,   87.7,    1.0595
"BUSMVMAI23", 12.505, 1,    7727.98,  -31.5,    1.0704, 2,    7688.72, -151.3,    1.0649, 3,    7651.13,   87.7,    1.0597
"BUSMVMAI25", 12.505, 1,    7729.01,  -31.5,    1.0705, 2,    7684.28, -151.3,    1.0643, 3,    7648.54,   87.7,    1.0594
"BUSMVMAI52", 12.505, 1,    7728.49,  -31.5,    1.0704, 2,    7686.54, -151.3,    1.0646, 3,    7649.85,   87.7,    1.0595
"BUSMVMAI54", 12.505, 1,    7728.49,  -31.5,    1.0704, 2,    7686.54, -151.3,    1.0646, 3,    7649.85,   87.7,    1.0595
"BUSMVMAI55", 12.505, 1,    7728.49,  -31.5,    1.0704, 2,    7686.54, -151.3,    1.0646, 3,    7649.85,   87.7,    1.0595
"BUSMVMAI696", 12.505, 1,    7727.98,  -31.5,    1.0704, 2,    7688.72, -151.3,    1.0649, 3,    7651.13,   87.7,    1.0597
"BUSMVMAI24", 12.505, 1,    7729.06,  -31.5,    1.0705, 2,    7684.06, -151.3,    1.0643, 3,    7648.42,   87.7,    1.0593
"BUSMVMAI26", 12.505, 1,    7729.59,  -31.5,    1.0706, 2,    7681.82, -151.3,     1.064, 3,    7647.12,   87.6,    1.0592
"BUSMVMAI49", 12.505, 1,    7729.01,  -31.5,    1.0705, 2,    7684.28, -151.3,    1.0643, 3,    7648.54,   87.7,    1.0594
"BUSMVMAI50", 12.505, 1,    7729.01,  -31.5,    1.0705, 2,    7684.28, -151.3,    1.0643, 3,    7648.54,   87.7,    1.0594
"BUSMVMAI27", 12.505, 1,    7729.57,  -31.5,    1.0706, 2,    7681.82, -151.3,     1.064, 3,    7647.11,   87.6,    1.0592
"BUSMVMAI28", 12.505, 1,       7730,  -31.5,    1.0706, 2,    7680.09, -151.3,    1.0637, 3,    7646.13,   87.6,     1.059
"BUSMVMAI29", 12.505, 1,    7729.56,  -31.5,    1.0706, 2,    7681.83, -151.3,     1.064, 3,     7647.1,   87.6,    1.0592
"BUSMVMAI31", 12.505, 1,    7730.47,  -31.5,    1.0707, 2,    7678.08, -151.3,    1.0634, 3,    7644.99,   87.6,    1.0589
"BUSMVMAI30", 12.505, 1,    7729.54,  -31.5,    1.0706, 2,    7681.84, -151.3,     1.064, 3,    7647.09,   87.6,    1.0592
"BUSMVMAI34", 12.505, 1,    7729.52,  -31.5,    1.0706, 2,    7681.85, -151.3,     1.064, 3,    7647.08,   87.6,    1.0592
"BUSMVMAI867", 12.505, 1,    7730.43,  -31.5,    1.0707, 0, 0, 0, 0, 0, 0, 0, 0
"BUSMVMAI43", 12.505, 1,    7730.48,  -31.5,    1.0707, 2,    7678.03, -151.3,    1.0634, 3,    7644.96,   87.6,    1.0589
"BUSMVMAI871", 12.505, 2,    7678.08, -151.3,    1.0634, 0, 0, 0, 0, 0, 0, 0, 0
"BUSMVMAI33", 12.505, 1,    7730.63,  -31.5,    1.0707, 2,    7677.46, -151.3,    1.0634, 3,    7644.64,   87.6,    1.0588
"BUSMVMAI32", 12.505, 1,    7731.05,  -31.5,    1.0708, 2,    7675.74, -151.3,    1.0631, 3,    7643.69,   87.5,    1.0587
"BUSMVMAI37", 12.505, 1,     7731.6,  -31.5,    1.0709, 2,    7673.39, -151.3,    1.0628, 3,    7642.43,   87.5,    1.0585
"BUSMVMAI44", 12.505, 1,     7730.5,  -31.5,    1.0707, 2,    7677.99, -151.3,    1.0634, 3,    7644.93,   87.6,    1.0589
"BUSMVMAI35", 12.505, 1,    7729.52,  -31.5,    1.0706, 2,    7681.86, -151.3,     1.064, 3,    7647.07,   87.6,    1.0592
"BUSMVMAI36", 12.505, 1,    7729.52,  -31.5,    1.0706, 2,    7681.86, -151.3,     1.064, 3,    7647.07,   87.6,    1.0592
"BUSMVMAI869", 12.505, 1,    7730.43,  -31.5,    1.0707, 0, 0, 0, 0, 0, 0, 0, 0
"BUSMVMAI38", 12.505, 1,    7732.04,  -31.5,    1.0709, 2,    7671.53, -151.4,    1.0625, 3,    7641.43,   87.5,    1.0584
"BUSMVMAI2181", 12.505, 1,    7731.59,  -31.5,    1.0709, 0, 0, 0, 0, 0, 0, 0, 0
"BUSMVMAI868", 12.505, 1,    7730.35,  -31.5,    1.0707, 0, 0, 0, 0, 0, 0, 0, 0
"BUSMVMAI870", 12.505, 1,    7730.27,  -31.5,    1.0707, 0, 0, 0, 0, 0, 0, 0, 0
"BUSMVMAI39", 12.505, 1,    7732.06,  -31.5,    1.0709, 2,    7671.51, -151.4,    1.0625, 3,    7641.39,   87.5,    1.0584
"BUSMVMAI40", 12.505, 1,    7732.43,  -31.5,     1.071, 2,     7669.7, -151.4,    1.0623, 3,    7640.49,   87.5,    1.0582
"BUSMVMAI697", 12.505, 1,    7732.09,  -31.5,    1.0709, 2,    7671.53, -151.3,    1.0625, 3,    7641.25,   87.5,    1.0583
"BUSMVMAI41", 12.505, 1,    7732.89,  -31.5,     1.071, 2,     7667.6, -151.4,     1.062, 3,    7639.38,   87.4,    1.0581
"BUSMVMAI42", 12.505, 1,    7732.94,  -31.5,     1.071, 2,    7667.57, -151.4,     1.062, 3,    7639.33,   87.4,    1.0581
"BUSMVMAI48", 12.505, 1,    7733.22,  -31.5,    1.0711, 2,    7665.88, -151.4,    1.0618, 3,    7638.52,   87.4,     1.058
"BUSMVMAI303", 12.505, 1,    7733.06,  -31.5,    1.0711, 2,    7666.74, -151.4,    1.0619, 3,    7638.95,   87.4,     1.058
"BUSMVMAI45", 12.505, 1,    7732.95,  -31.5,     1.071, 2,    7667.56, -151.4,     1.062, 3,     7639.3,   87.4,    1.0581
"BUSMVMAI701", 12.505, 1,    7732.96,  -31.5,     1.071, 2,    7667.57, -151.4,     1.062, 3,    7639.26,   87.4,    1.0581
"BUSMVMAI47", 12.505, 1,     7728.4,  -31.4,    1.0704, 2,    7703.83, -151.2,     1.067, 3,    7664.16,   87.9,    1.0615
"BUSMVMAI179", 12.505, 1,    7728.28,  -31.4,    1.0704, 2,    7703.52, -151.2,     1.067, 3,    7663.73,   87.9,    1.0615
"BUSMVMAI160", 12.505, 1,    7728.94,  -31.4,    1.0705, 2,    7705.33, -151.2,    1.0672, 3,    7666.24,   88.0,    1.0618
"BUSMVMAI1103", 12.505, 1,    7733.17,  -31.5,    1.0711, 0, 0, 0, 0, 0, 0, 0, 0
"BUSMVMAI259", 12.505, 1,    7733.42,  -31.5,    1.0711, 2,       7665, -151.4,    1.0616, 3,    7638.12,   87.4,    1.0579
"BUSMVMAI304", 12.505, 1,    7733.22,  -31.5,    1.0711, 2,    7665.88, -151.4,    1.0618, 3,    7638.52,   87.4,     1.058
"BUSMVMAI702", 12.505, 1,    7729.01,  -31.5,    1.0705, 2,    7684.28, -151.3,    1.0643, 3,    7648.54,   87.7,    1.0594
"BUSMVMAI58", 12.505, 1,    7724.56,  -31.5,    1.0699, 2,    7698.65, -151.2,    1.0663, 3,     7656.1,   87.8,    1.0604
"BUSMVMAI57", 12.505, 1,    7722.79,  -31.5,    1.0696, 2,    7698.91, -151.2,    1.0663, 3,       7655,   87.8,    1.0602
"BUSMVMAI60", 12.505, 1,    7722.04,  -31.5,    1.0695, 2,    7699.02, -151.2,    1.0663, 3,    7654.55,   87.8,    1.0602
"BUSMVMAI703", 12.505, 1,    7722.79,  -31.5,    1.0696, 2,    7698.91, -151.2,    1.0663, 3,    7654.99,   87.8,    1.0602
"BUSMVMAI123", 12.505, 1,       7725,  -31.5,    1.0699, 2,    7698.59, -151.2,    1.0663, 3,    7656.38,   87.8,    1.0604
"BUSMVMAI59", 12.505, 1,    7721.01,  -31.5,    1.0694, 2,    7699.19, -151.3,    1.0664, 3,    7654.05,   87.8,    1.0601
"BUSMVMAI61", 12.505, 1,     7719.3,  -31.5,    1.0692, 2,    7699.48, -151.3,    1.0664, 3,    7653.21,   87.8,      1.06
"BUSMVMAI63", 12.505, 1,    7722.08,  -31.5,    1.0695, 2,    7698.99, -151.2,    1.0663, 3,    7654.49,   87.8,    1.0602
"BUSMVMAI874", 12.505, 3,    7654.55,   87.8,    1.0602, 0, 0, 0, 0, 0, 0, 0, 0
"BUSMVMAI62", 12.505, 1,    7717.65,  -31.6,    1.0689, 2,    7699.67, -151.3,    1.0664, 3,    7652.39,   87.8,    1.0599
"BUSMVMAI64", 12.505, 1,    7715.88,  -31.6,    1.0687, 2,    7699.92, -151.3,    1.0665, 3,    7651.75,   87.8,    1.0598
"BUSMVMAI942", 12.505, 3,    7652.38,   87.8,    1.0599, 0, 0, 0, 0, 0, 0, 0, 0
"BUSMVMAI873", 12.505, 3,    7652.38,   87.8,    1.0599, 0, 0, 0, 0, 0, 0, 0, 0
"BUSMVMAI872", 12.505, 3,     7652.1,   87.8,    1.0598, 0, 0, 0, 0, 0, 0, 0, 0
"BUSMVMAI880", 12.505, 3,    7652.09,   87.8,    1.0598, 0, 0, 0, 0, 0, 0, 0, 0
"BUSMVMAI945", 12.505, 3,    7654.48,   87.8,    1.0602, 0, 0, 0, 0, 0, 0, 0, 0
"BUSMVMAI65", 12.505, 1,    7714.05,  -31.6,    1.0684, 2,    7700.11, -151.3,    1.0665, 3,    7651.06,   87.9,    1.0597
"BUSMVMAI66", 12.505, 1,    7712.19,  -31.6,    1.0682, 2,     7700.3, -151.3,    1.0665, 3,    7650.36,   87.9,    1.0596
"BUSMVMAI67", 12.505, 1,     7710.2,  -31.6,    1.0679, 2,    7700.51, -151.3,    1.0666, 3,    7649.62,   87.9,    1.0595
"BUSMVMAI878", 12.505, 1,    7710.13,  -31.6,    1.0679, 0, 0, 0, 0, 0, 0, 0, 0
"BUSMVMAI68", 12.505, 1,    7708.69,  -31.6,    1.0677, 2,    7700.64, -151.3,    1.0666, 3,    7649.06,   87.9,    1.0594
"BUSMVMAI706", 12.505, 1,     7710.2,  -31.6,    1.0679, 2,    7700.51, -151.3,    1.0666, 3,    7649.61,   87.9,    1.0595
"BUSMVMAI876", 12.505, 3,    7654.47,   87.8,    1.0602, 0, 0, 0, 0, 0, 0, 0, 0
"BUSMVMAI875", 12.505, 3,    7654.25,   87.8,    1.0601, 0, 0, 0, 0, 0, 0, 0, 0
"BUSMVMAI877", 12.505, 3,    7654.17,   87.8,    1.0601, 0, 0, 0, 0, 0, 0, 0, 0
"BUSMVMAI883", 12.505, 3,    7653.99,   87.8,    1.0601, 0, 0, 0, 0, 0, 0, 0, 0
"BUSMVMAI884", 12.505, 3,    7654.16,   87.8,    1.0601, 0, 0, 0, 0, 0, 0, 0, 0
"BUSMVMAI886", 12.505, 3,    7654.16,   87.8,    1.0601, 0, 0, 0, 0, 0, 0, 0, 0
"BUSMVMAI885", 12.505, 1,    7710.04,  -31.6,    1.0679, 0, 0, 0, 0, 0, 0, 0, 0
"BUSMVMAI879", 12.505, 3,     7651.7,   87.8,    1.0598, 0, 0, 0, 0, 0, 0, 0, 0
"BUSMVMAI881", 12.505, 3,    7651.67,   87.8,    1.0598, 0, 0, 0, 0, 0, 0, 0, 0
"BUSMVMAI888", 12.505, 3,    7651.65,   87.8,    1.0598, 0, 0, 0, 0, 0, 0, 0, 0
"BUSMVMAI882", 12.505, 3,    7651.64,   87.8,    1.0598, 0, 0, 0, 0, 0, 0, 0, 0
"BUSMVMAI944", 12.505, 3,    7651.64,   87.8,    1.0598, 0, 0, 0, 0, 0, 0, 0, 0
"BUSMVMAI889", 12.505, 3,    7653.84,   87.8,    1.0601, 0, 0, 0, 0, 0, 0, 0, 0
"BUSMVMAI2183", 12.505, 3,    7654.15,   87.8,    1.0601, 0, 0, 0, 0, 0, 0, 0, 0
"BUSMVMAI2184", 12.505, 3,    7654.16,   87.8,    1.0601, 0, 0, 0, 0, 0, 0, 0, 0
"BUSMVMAI71", 12.505, 1,    7707.24,  -31.6,    1.0675, 2,    7700.73, -151.3,    1.0666, 3,    7648.51,   87.9,    1.0594
"BUSMVMAI2182", 12.505, 1,    7710.03,  -31.6,    1.0679, 0, 0, 0, 0, 0, 0, 0, 0
"BUSMVMAI2185", 12.505, 1,    7710.04,  -31.6,    1.0679, 0, 0, 0, 0, 0, 0, 0, 0
"BUSMVMAI2186", 12.505, 1,    7709.98,  -31.6,    1.0679, 0, 0, 0, 0, 0, 0, 0, 0
"BUSMVMAI887", 12.505, 3,    7654.14,   87.8,    1.0601, 0, 0, 0, 0, 0, 0, 0, 0
"BUSMVMAI892", 12.505, 3,    7654.12,   87.8,    1.0601, 0, 0, 0, 0, 0, 0, 0, 0
"BUSMVMAI897", 12.505, 3,    7651.59,   87.8,    1.0598, 0, 0, 0, 0, 0, 0, 0, 0
"BUSMVMAI890", 12.505, 3,    7653.71,   87.8,    1.0601, 0, 0, 0, 0, 0, 0, 0, 0
"BUSMVMAI891", 12.505, 3,    7653.62,   87.8,    1.0601, 0, 0, 0, 0, 0, 0, 0, 0
"BUSMVMAI896", 12.505, 3,    7653.59,   87.8,    1.0601, 0, 0, 0, 0, 0, 0, 0, 0
"BUSMVMAI893", 12.505, 3,     7654.1,   87.8,    1.0601, 0, 0, 0, 0, 0, 0, 0, 0
"BUSMVMAI894", 12.505, 3,    7654.09,   87.8,    1.0601, 0, 0, 0, 0, 0, 0, 0, 0
"BUSMVMAI895", 12.505, 3,    7654.08,   87.8,    1.0601, 0, 0, 0, 0, 0, 0, 0, 0
"BUSMVMAI898", 12.505, 3,    7654.08,   87.8,    1.0601, 0, 0, 0, 0, 0, 0, 0, 0
"BUSMVMAI70", 12.505, 1,     7710.2,  -31.6,    1.0679, 2,    7700.51, -151.3,    1.0666, 3,    7649.57,   87.9,    1.0595
"BUSMVMAI69", 12.505, 1,     7710.2,  -31.6,    1.0679, 2,    7700.51, -151.3,    1.0666, 3,    7649.57,   87.9,    1.0595
"BUSMVMAI708", 12.505, 1,     7710.2,  -31.6,    1.0679, 2,    7700.51, -151.3,    1.0666, 3,    7649.58,   87.9,    1.0595
"BUSMVMAI72", 12.505, 1,    7705.34,  -31.6,    1.0672, 2,    7700.86, -151.3,    1.0666, 3,     7647.8,   87.9,    1.0593
"BUSMVMAI73", 12.505, 1,    7703.51,  -31.6,     1.067, 2,    7701.01, -151.3,    1.0666, 3,    7647.24,   87.9,    1.0592
"BUSMVMAI134", 12.505, 1,    7705.34,  -31.6,    1.0672, 2,    7700.86, -151.3,    1.0666, 3,     7647.8,   87.9,    1.0593
"BUSMVMAI900", 12.505, 3,    7651.53,   87.8,    1.0598, 0, 0, 0, 0, 0, 0, 0, 0
"BUSMVMAI904", 12.505, 3,    7654.08,   87.8,    1.0601, 0, 0, 0, 0, 0, 0, 0, 0
"BUSMVMAI75", 12.505, 1,    7702.62,  -31.7,    1.0668, 2,    7701.13, -151.3,    1.0666, 3,    7646.95,   87.9,    1.0591
"BUSMVMAI718", 12.505, 1,    7703.51,  -31.6,     1.067, 2,    7701.01, -151.3,    1.0666, 3,    7647.24,   87.9,    1.0592
"BUSMVMAI899", 12.505, 3,    7651.53,   87.8,    1.0598, 0, 0, 0, 0, 0, 0, 0, 0
"BUSMVMAI902", 12.505, 3,    7651.51,   87.8,    1.0598, 0, 0, 0, 0, 0, 0, 0, 0
"BUSMVMAI901", 12.505, 3,    7651.48,   87.8,    1.0598, 0, 0, 0, 0, 0, 0, 0, 0
"BUSMVMAI903", 12.505, 3,    7651.44,   87.8,    1.0598, 0, 0, 0, 0, 0, 0, 0, 0
"BUSMVMAI905", 12.505, 3,     7651.4,   87.8,    1.0598, 0, 0, 0, 0, 0, 0, 0, 0
"BUSMVMAI907", 12.505, 3,    7651.44,   87.8,    1.0598, 0, 0, 0, 0, 0, 0, 0, 0
"BUSMVMAI906", 12.505, 3,     7651.4,   87.8,    1.0598, 0, 0, 0, 0, 0, 0, 0, 0
"BUSMVMAI946", 12.505, 3,     7651.4,   87.8,    1.0598, 0, 0, 0, 0, 0, 0, 0, 0
"BUSMVMAI74", 12.505, 1,    7702.62,  -31.7,    1.0668, 2,    7701.13, -151.3,    1.0666, 3,    7646.95,   87.9,    1.0591
"BUSMVMAI76", 12.505, 1,    7702.47,  -31.7,    1.0668, 2,    7701.24, -151.3,    1.0667, 3,    7646.88,   87.9,    1.0591
"BUSMVMAI77", 12.505, 1,    7702.09,  -31.7,    1.0668, 2,    7701.15, -151.3,    1.0666, 3,    7646.78,   87.9,    1.0591
"BUSMVMAI79", 12.505, 1,    7702.46,  -31.7,    1.0668, 2,    7701.24, -151.3,    1.0667, 3,    7646.88,   87.9,    1.0591
"BUSMVMAI81", 12.505, 1,    7702.07,  -31.7,    1.0668, 2,    7701.05, -151.3,    1.0666, 3,    7646.82,   87.9,    1.0591
"BUSMVMAI91", 12.505, 1,    7700.73,  -31.7,    1.0666, 2,    7701.27, -151.3,    1.0667, 3,    7646.32,   87.9,     1.059
"BUSMVMAI78", 12.505, 1,     7702.2,  -31.7,    1.0668, 2,    7701.43, -151.3,    1.0667, 3,    7646.75,   87.9,    1.0591
"BUSMVMAI80", 12.505, 1,    7701.94,  -31.7,    1.0668, 2,    7701.62, -151.3,    1.0667, 3,    7646.63,   87.9,    1.0591
"BUSMVMAI908", 12.505, 1,     7701.8,  -31.7,    1.0667, 0, 0, 0, 0, 0, 0, 0, 0
"BUSMVMAI89", 12.505, 1,    7701.86,  -31.7,    1.0667, 2,    7701.68, -151.3,    1.0667, 3,    7646.57,   87.9,    1.0591
"BUSMVMAI949", 12.505, 3,    7651.44,   87.8,    1.0598, 0, 0, 0, 0, 0, 0, 0, 0
"BUSMVMAI82", 12.505, 1,    7702.05,  -31.7,    1.0668, 2,    7700.97, -151.3,    1.0666, 3,    7646.86,   87.9,    1.0591
"BUSMVMAI83", 12.505, 1,    7702.05,  -31.7,    1.0668, 2,    7700.96, -151.3,    1.0666, 3,    7646.84,   87.9,    1.0591
"BUSMVMAI86", 12.505, 1,    7702.06,  -31.7,    1.0668, 2,    7700.95, -151.3,    1.0666, 3,    7646.83,   87.9,    1.0591
"BUSMVMAI85", 12.505, 1,    7703.49,  -31.6,     1.067, 2,    7700.91, -151.3,    1.0666, 3,    7647.24,   87.9,    1.0592
"BUSMVMAI84", 12.505, 1,    7703.42,  -31.6,     1.067, 2,    7700.82, -151.3,    1.0666, 3,    7647.26,   87.9,    1.0592
"BUSMVMAI93", 12.505, 1,    7703.38,  -31.6,    1.0669, 2,    7700.77, -151.3,    1.0666, 3,    7647.27,   87.9,    1.0592
"BUSMVMAI2198", 12.505, 2,    7700.82, -151.3,    1.0666, 0, 0, 0, 0, 0, 0, 0, 0
"BUSMVMAI709", 12.505, 1,    7703.51,  -31.6,     1.067, 2,       7701, -151.3,    1.0666, 3,    7647.24,   87.9,    1.0592
"BUSMVMAI88", 12.505, 1,    7702.07,  -31.7,    1.0668, 2,    7700.94, -151.3,    1.0666, 3,    7646.82,   87.9,    1.0591
"BUSMVMAI87", 12.505, 1,    7702.07,  -31.7,    1.0668, 2,    7700.92, -151.3,    1.0666, 3,    7646.81,   87.9,    1.0591
"BUSMVMAI99", 12.505, 1,    7702.07,  -31.7,    1.0668, 2,    7700.92, -151.3,    1.0666, 3,    7646.81,   87.9,    1.0591
"BUSMVMAI722", 12.505, 1,    7702.07,  -31.7,    1.0668, 2,    7700.92, -151.3,    1.0666, 3,     7646.8,   87.9,    1.0591
"BUSMVMAI909", 12.505, 1,    7701.66,  -31.7,    1.0667, 0, 0, 0, 0, 0, 0, 0, 0
"BUSMVMAI90", 12.505, 1,    7701.83,  -31.7,    1.0667, 2,    7701.71, -151.3,    1.0667, 3,    7646.53,   87.9,    1.0591
"BUSMVMAI102", 12.505, 1,    7701.78,  -31.7,    1.0667, 2,    7701.74, -151.3,    1.0667, 3,    7646.47,   87.9,    1.0591
"BUSMVMAI92", 12.505, 1,    7699.56,  -31.7,    1.0664, 2,    7701.38, -151.3,    1.0667, 3,    7645.92,   87.9,     1.059
"BUSMVMAI132", 12.505, 1,    7700.73,  -31.7,    1.0666, 2,    7701.27, -151.3,    1.0667, 3,    7646.32,   87.9,     1.059
"BUSMVMAI98", 12.505, 1,    7699.56,  -31.7,    1.0664, 2,    7701.38, -151.3,    1.0667, 3,    7645.92,   87.9,     1.059
"BUSMVMAI100", 12.505, 1,    7698.06,  -31.7,    1.0662, 2,    7701.61, -151.3,    1.0667, 3,    7645.36,   87.9,    1.0589
"BUSMVMAI723", 12.505, 1,    7699.56,  -31.7,    1.0664, 2,    7701.37, -151.3,    1.0667, 3,    7645.92,   87.9,     1.059
"BUSMVMAI96", 12.505, 1,    7703.34,  -31.6,    1.0669, 2,    7700.73, -151.3,    1.0666, 3,    7647.29,   87.9,    1.0592
"BUSMVMAI916", 12.505, 1,    7703.37,  -31.6,    1.0669, 0, 0, 0, 0, 0, 0, 0, 0
"BUSMVMAI95", 12.505, 1,    7699.56,  -31.7,    1.0664, 2,     7701.3, -151.3,    1.0667, 3,    7645.93,   87.9,     1.059
"BUSMVMAI94", 12.505, 1,    7699.54,  -31.7,    1.0664, 2,    7701.24, -151.3,    1.0667, 3,    7645.96,   87.9,     1.059
"BUSMVMAI112", 12.505, 1,    7699.54,  -31.7,    1.0664, 2,    7701.24, -151.3,    1.0667, 3,    7645.95,   87.9,     1.059
"BUSMVMAI126", 12.505, 1,    7699.56,  -31.7,    1.0664, 2,    7701.31, -151.3,    1.0667, 3,    7645.93,   87.9,     1.059
"BUSMVMAI97", 12.505, 1,    7703.29,  -31.6,    1.0669, 2,    7700.65, -151.3,    1.0666, 3,    7647.31,   87.9,    1.0592
"BUSMVMAI711", 12.505, 1,    7703.34,  -31.6,    1.0669, 2,    7700.73, -151.3,    1.0666, 3,    7647.28,   87.9,    1.0592
"BUSMVMAI915", 12.505, 1,    7703.29,  -31.6,    1.0669, 0, 0, 0, 0, 0, 0, 0, 0
...
"BUSLVMAI1", 0.20785, 1,    127.254,   87.9,    1.0604, 2,    127.269,  -92.1,    1.0606, 0, 0, 0, 0
"BUSLVMAI2", 0.20785, 1,      127.1,   87.7,    1.0592, 2,    127.113,  -92.3,    1.0593, 0, 0, 0, 0
"BUSLVMAI3", 0.20785, 1,     127.22,   87.9,    1.0602, 2,    127.236,  -92.2,    1.0603, 0, 0, 0, 0
"BUSLVMAI4", 0.20785, 1,    127.991,  -31.7,    1.0666, 2,    128.075,  148.3,    1.0673, 0, 0, 0, 0
"BUSLVMAI5", 0.20785, 1,    127.222, -151.4,    1.0602, 2,     127.27,   28.6,    1.0606, 0, 0, 0, 0
"BUSLVMAI6", 0.20785, 1,    127.059,   87.6,    1.0588, 2,    127.074,  -92.4,     1.059, 0, 0, 0, 0
"BUSLVMAI7", 0.20785, 1,    127.259,   87.9,    1.0605, 2,    127.273,  -92.1,    1.0606, 0, 0, 0, 0
"BUSLVMAI8", 0.20785, 1,    126.813,   87.7,    1.0568, 2,    126.831,  -92.3,    1.0569, 0, 0, 0, 0
"BUSLVMAI9", 0.20785, 1,    126.579,   87.3,    1.0548, 2,    126.592,  -92.7,    1.0549, 0, 0, 0, 0
"BUSLVMAI10", 0.20785, 1,    126.684,   87.3,    1.0557, 2,    126.697,  -92.7,    1.0558, 0, 0, 0, 0
"BUSLVMAI11", 0.20785, 1,    127.826, -151.3,    1.0652, 2,    127.839,   28.7,    1.0653, 0, 0, 0, 0
"BUSLVMAI12", 0.20785, 1,    127.778, -151.3,    1.0648, 2,    127.794,   28.7,    1.0649, 0, 0, 0, 0
"BUSLVMAI13", 0.20785, 1,    128.376,  -31.5,    1.0698, 2,    128.391,  148.5,    1.0699, 0, 0, 0, 0
"BUSLVMAI14", 0.20785, 1,    128.424,  -31.5,    1.0702, 2,     128.44,  148.5,    1.0703, 0, 0, 0, 0
"BUSLVMAI15", 0.20785, 1,     128.38,  -31.5,    1.0698, 2,    128.394,  148.5,    1.0699, 0, 0, 0, 0
"BUSLVMAI16", 0.20785, 1,    127.224,   87.9,    1.0602, 2,    127.242,  -92.2,    1.0603, 0, 0, 0, 0
"BUSLVMAI17", 0.20785, 1,    125.659,   87.1,    1.0472, 2,    125.683,  -92.9,    1.0474, 0, 0, 0, 0
"BUSLVMAI18", 0.20785, 1,    127.126,   87.7,    1.0594, 2,    127.142,  -92.3,    1.0595, 0, 0, 0, 0
"BUSLVMAI19", 0.20785, 1,    127.194,   87.8,      1.06, 2,    127.208,  -92.2,    1.0601, 0, 0, 0, 0
"BUSLVMAI20", 0.20785, 1,    127.102, -151.4,    1.0592, 2,    127.144,   28.6,    1.0595, 0, 0, 0, 0
"BUSLVMAI21", 0.20785, 1,    127.254,   87.9,    1.0605, 2,     127.27,  -92.1,    1.0606, 0, 0, 0, 0
"BUSLVMAI22", 0.20785, 1,    128.236,  -31.6,    1.0686, 2,    128.324,  148.4,    1.0694, 0, 0, 0, 0
"BUSLVMAI23", 0.20785, 1,    127.217,   87.9,    1.0601, 2,    127.232,  -92.2,    1.0603, 0, 0, 0, 0
"BUSLVMAI24", 0.20785, 1,    127.227,   87.9,    1.0602, 2,    127.243,  -92.2,    1.0604, 0, 0, 0, 0
"BUSLVMAI25", 0.20785, 1,     127.15,   87.8,    1.0596, 2,    127.166,  -92.2,    1.0597, 0, 0, 0, 0
"BUSLVMAI26", 0.20785, 1,     127.78, -151.3,    1.0648, 2,    127.795,   28.7,     1.065, 0, 0, 0, 0
"BUSLVMAI27", 0.20785, 1,    127.845, -151.3,    1.0654, 2,    127.862,   28.7,    1.0655, 0, 0, 0, 0
"BUSLVMAI28", 0.20785, 1,    127.126,   87.7,    1.0594, 2,    127.142,  -92.3,    1.0595, 0, 0, 0, 0
"BUSLVMAI29", 0.20785, 1,    126.321,   87.1,    1.0527, 2,    126.337,  -92.9,    1.0528, 0, 0, 0, 0
"BUSLVMAI30", 0.20785, 1,     127.58, -151.3,    1.0632, 2,    127.594,   28.7,    1.0633, 0, 0, 0, 0
"BUSLVMAI31", 0.20785, 1,    127.222,   87.9,    1.0602, 2,    127.238,  -92.2,    1.0603, 0, 0, 0, 0
"BUSLVMAI32", 0.20785, 1,    127.857,  -31.7,    1.0655, 2,    127.871,  148.3,    1.0656, 0, 0, 0, 0
"BUSLVMAI33", 0.20785, 1,    127.091,   87.7,    1.0591, 2,    127.104,  -92.3,    1.0592, 0, 0, 0, 0
"BUSLVMAI34", 0.20785, 1,    125.037,   87.4,     1.042, 2,    125.207,  -92.6,    1.0434, 0, 0, 0, 0
"BUSLVMAI35", 0.20785, 1,    127.139,   87.8,    1.0595, 2,    127.153,  -92.2,    1.0596, 0, 0, 0, 0
"BUSLVMAI36", 0.20785, 1,    127.138,   87.8,    1.0595, 2,    127.152,  -92.2,    1.0596, 0, 0, 0, 0
"BUSLVMAI37", 0.20785, 1,    127.132,   87.8,    1.0594, 2,    127.148,  -92.2,    1.0596, 0, 0, 0, 0
"BUSLVMAI38", 0.20785, 1,    124.594, -152.0,    1.0383, 2,    124.612,   27.9,    1.0384, 0, 0, 0, 0
"BUSLVMAI39", 0.20785, 1,     127.71, -151.4,    1.0642, 2,    127.723,   28.6,    1.0644, 0, 0, 0, 0
"BUSLVMAI40", 0.20785, 1,    126.752,   87.6,    1.0563, 2,    126.795,  -92.4,    1.0566, 0, 0, 0, 0
"BUSLVMAI41", 0.20785, 1,    127.972,  -31.6,    1.0664, 2,    127.988,  148.3,    1.0666, 0, 0, 0, 0
"BUSLVMAI42", 0.20785, 1,    128.054,  -31.6,    1.0671, 2,     128.07,  148.4,    1.0672, 0, 0, 0, 0
"BUSLVMAI43", 0.20785, 1,    128.052,  -31.6,    1.0671, 2,    128.067,  148.4,    1.0672, 0, 0, 0, 0
"BUSLVMAI44", 0.20785, 1,    126.954,   87.8,     1.058, 2,    126.983,  -92.2,    1.0582, 0, 0, 0, 0
"BUSLVMAI45", 0.20785, 1,    126.912,   87.8,    1.0576, 2,    126.926,  -92.2,    1.0577, 0, 0, 0, 0
"BUSLVMAI46", 0.20785, 1,    127.062,   87.9,    1.0589, 2,    127.078,  -92.1,     1.059, 0, 0, 0, 0
"BUSLVMAI47", 0.20785, 1,    127.141,   87.8,    1.0595, 2,    127.156,  -92.2,    1.0596, 0, 0, 0, 0
"BUSLVMAI48", 0.20785, 1,    126.662,   87.6,    1.0555, 2,      126.7,  -92.4,    1.0558, 0, 0, 0, 0
"BUSLVMAI49", 0.20785, 1,    127.994,  -31.6,    1.0666, 2,     128.01,  148.4,    1.0667, 0, 0, 0, 0
"BUSLVMAI50", 0.20785, 1,    126.385, -151.7,    1.0532, 2,    126.481,   28.3,     1.054, 0, 0, 0, 0
"BUSLVMAI51", 0.20785, 1,    126.974,  -32.0,    1.0581, 2,     126.99,  148.0,    1.0583, 0, 0, 0, 0
"BUSLVMAI52", 0.20785, 1,     127.15,   87.9,    1.0596, 2,    127.163,  -92.2,    1.0597, 0, 0, 0, 0
"BUSLVMAI53", 0.20785, 1,    127.133,   87.9,    1.0594, 2,    127.149,  -92.2,    1.0596, 0, 0, 0, 0
"BUSLVMAI54", 0.20785, 1,     126.64,   87.7,    1.0553, 2,    126.656,  -92.3,    1.0555, 0, 0, 0, 0
"BUSLVMAI55", 0.20785, 1,    128.071,  -31.6,    1.0673, 2,    128.086,  148.4,    1.0674, 0, 0, 0, 0
"BUSLVMAI56", 0.20785, 1,    126.885,   87.8,    1.0574, 2,    126.898,  -92.2,    1.0575, 0, 0, 0, 0
"BUSLVMAI57", 0.20785, 1,     127.04,   87.9,    1.0587, 2,    127.055,  -92.1,    1.0588, 0, 0, 0, 0
"BUSLVMAI58", 0.20785, 1,    127.148,   87.9,    1.0596, 2,    127.163,  -92.2,    1.0597, 0, 0, 0, 0
"BUSLVMAI59", 0.20785, 1,    127.994,  -31.6,    1.0666, 2,     128.01,  148.4,    1.0667, 0, 0, 0, 0
"BUSLVMAI60", 0.20785, 1,    127.987,  -31.7,    1.0666, 2,        128,  148.3,    1.0667, 0, 0, 0, 0
"BUSLVMAI61", 0.20785, 1,    126.159,  -32.5,    1.0513, 2,    126.177,  147.5,    1.0515, 0, 0, 0, 0
"BUSLVMAI62", 0.20785, 1,    127.736, -151.4,    1.0645, 2,     127.75,   28.6,    1.0646, 0, 0, 0, 0
"BUSLVMAI63", 0.20785, 1,    127.453,  -31.8,    1.0621, 2,    127.474,  148.2,    1.0623, 0, 0, 0, 0
"BUSLVMAI64", 0.20785, 1,    127.848, -151.3,    1.0654, 2,    127.861,   28.7,    1.0655, 0, 0, 0, 0
"BUSLVMAI65", 0.20785, 1,     127.97,  -31.7,    1.0664, 2,    127.984,  148.3,    1.0665, 0, 0, 0, 0
"BUSLVMAI66", 0.20785, 1,    127.138,   87.8,    1.0595, 2,    127.152,  -92.2,    1.0596, 0, 0, 0, 0
"BUSLVMAI67", 0.20785, 1,    127.538,  -31.8,    1.0628, 2,    127.554,  148.2,    1.0629, 0, 0, 0, 0
"BUSLVMAI68", 0.20785, 1,    127.496,  -31.9,    1.0625, 2,    127.509,  148.1,    1.0626, 0, 0, 0, 0
"BUSLVMAI69", 0.20785, 1,    127.142,   87.8,    1.0595, 2,    127.155,  -92.2,    1.0596, 0, 0, 0, 0
"BUSLVMAI70", 0.20785, 1,     126.81,   87.7,    1.0567, 2,    126.833,  -92.3,    1.0569, 0, 0, 0, 0
"BUSLVMAI71", 0.20785, 1,    127.348,  -31.9,    1.0612, 2,    127.362,  148.1,    1.0613, 0, 0, 0, 0
"BUSLVMAI72", 0.20785, 1,    127.915,  -31.7,     1.066, 2,    127.928,  148.3,    1.0661, 0, 0, 0, 0
"BUSLVMAI73", 0.20785, 1,    127.818,  -31.7,    1.0651, 2,    127.831,  148.3,    1.0653, 0, 0, 0, 0
"BUSLVMAI74", 0.20785, 1,    127.993,  -31.6,    1.0666, 2,    128.009,  148.4,    1.0667, 0, 0, 0, 0
"BUSLVMAI75", 0.20785, 1,    127.593, -151.4,    1.0633, 2,    127.607,   28.6,    1.0634, 0, 0, 0, 0
"BUSLVMAI76", 0.20785, 1,    127.139,   87.8,    1.0595, 2,    127.152,  -92.2,    1.0596, 0, 0, 0, 0
"BUSLVMAI77", 0.20785, 1,    127.296,  -31.9,    1.0608, 2,     127.31,  148.1,    1.0609, 0, 0, 0, 0
"BUSLVMAI78", 0.20785, 1,    127.921,  -31.7,     1.066, 2,    127.934,  148.3,    1.0661, 0, 0, 0, 0
"BUSLVMAI79", 0.20785, 1,    127.046,   87.9,    1.0587, 2,     127.06,  -92.1,    1.0588, 0, 0, 0, 0
"BUSLVMAI80", 0.20785, 1,    126.001,   87.3,      1.05, 2,    126.022,  -92.7,    1.0502, 0, 0, 0, 0
"BUSLVMAI81", 0.20785, 1,    127.138,   87.8,    1.0595, 2,    127.152,  -92.2,    1.0596, 0, 0, 0, 0
"BUSLVMAI82", 0.20785, 1,    126.972,   87.8,    1.0581, 2,    126.988,  -92.2,    1.0582, 0, 0, 0, 0
"BUSLVMAI83", 0.20785, 1,    127.609,  -31.8,    1.0634, 2,    127.626,  148.2,    1.0635, 0, 0, 0, 0
"BUSLVMAI84", 0.20785, 1,    126.979,   87.8,    1.0582, 2,    126.994,  -92.2,    1.0583, 0, 0, 0, 0
"BUSLVMAI85", 0.20785, 1,     127.92, -151.3,     1.066, 2,    127.944,   28.7,    1.0662, 0, 0, 0, 0
"BUSLVMAI86", 0.20785, 1,    127.713,  -31.8,    1.0643, 2,    127.755,  148.2,    1.0646, 0, 0, 0, 0
"BUSLVMAI87", 0.20785, 1,    128.066,  -31.6,    1.0672, 2,    128.105,  148.4,    1.0675, 0, 0, 0, 0
"BUSLVMAI88", 0.20785, 1,    127.183,   87.8,    1.0599, 2,    127.196,  -92.2,      1.06, 0, 0, 0, 0
"BUSLVMAI89", 0.20785, 1,    127.139,   87.8,    1.0595, 2,    127.152,  -92.2,    1.0596, 0, 0, 0, 0
"BUSLVMAI90", 0.20785, 1,    126.721,   87.7,     1.056, 2,    126.737,  -92.3,    1.0561, 0, 0, 0, 0
"BUSLVMAI91", 0.20785, 1,    127.155,   87.8,    1.0596, 2,    127.171,  -92.2,    1.0598, 0, 0, 0, 0
"BUSLVMAI92", 0.20785, 1,    127.547,  -31.8,    1.0629, 2,    127.569,  148.2,    1.0631, 0, 0, 0, 0
"BUSLVMAI93", 0.20785, 1,     126.87,   87.8,    1.0573, 2,    126.886,  -92.2,    1.0574, 0, 0, 0, 0
"BUSLVMAI94", 0.20785, 1,    126.952,   87.8,    1.0579, 2,    126.966,  -92.2,    1.0581, 0, 0, 0, 0
"BUSLVMAI95", 0.20785, 1,     127.04,   87.9,    1.0587, 2,    127.055,  -92.1,    1.0588, 0, 0, 0, 0
"BUSLVMAI96", 0.20785, 1,    127.161,   87.8,    1.0597, 2,    127.175,  -92.2,    1.0598, 0, 0, 0, 0
"BUSLVMAI97", 0.20785, 1,    127.952, -151.3,    1.0663, 2,    127.968,   28.7,    1.0664, 0, 0, 0, 0
"BUSLVMAI98", 0.20785, 1,    127.952, -151.3,    1.0663, 2,    127.968,   28.7,    1.0664, 0, 0, 0, 0
"BUSLVMAI99", 0.20785, 1,    127.165,   87.8,    1.0597, 2,     127.18,  -92.2,    1.0598, 0, 0, 0, 0
"BUSLVMAI100", 0.20785, 1,     127.13,   87.8,    1.0594, 2,    127.144,  -92.2,    1.0595, 0, 0, 0, 0
"BUSLVMAI101", 0.20785, 1,    127.037,   87.9,    1.0586, 2,    127.053,  -92.1,    1.0588, 0, 0, 0, 0
"BUSLVMAI102", 0.20785, 1,    127.136,   87.9,    1.0595, 2,    127.152,  -92.2,    1.0596, 0, 0, 0, 0
"BUSLVMAI103", 0.20785, 1,    126.995,   87.9,    1.0583, 2,    127.011,  -92.2,    1.0584, 0, 0, 0, 0
"BUSLVMAI104", 0.20785, 1,    126.999,   87.8,    1.0583, 2,    127.014,  -92.2,    1.0584, 0, 0, 0, 0
"BUSLVMAI105", 0.20785, 1,    126.857,   87.8,    1.0571, 2,    126.871,  -92.2,    1.0573, 0, 0, 0, 0
"BUSLVMAI106", 0.20785, 1,    127.939,  -31.7,    1.0662, 2,    127.952,  148.3,    1.0663, 0, 0, 0, 0
"BUSLVMAI107", 0.20785, 1,    127.141,   87.8,    1.0595, 2,    127.155,  -92.2,    1.0596, 0, 0, 0, 0
"BUSLVMAI108", 0.20785, 1,    127.054,   87.9,    1.0588, 2,    127.068,  -92.1,    1.0589, 0, 0, 0, 0
"BUSLVMAI109", 0.20785, 1,    127.457,  -31.8,    1.0621, 2,    127.497,  148.2,    1.0625, 0, 0, 0, 0
"BUSLVMAI110", 0.20785, 1,    127.571,  -31.8,    1.0631, 2,    127.593,  148.2,    1.0633, 0, 0, 0, 0
"BUSLVMAI111", 0.20785, 1,    127.671,  -31.8,    1.0639, 2,    127.687,  148.2,    1.0641, 0, 0, 0, 0
"BUSLVMAI112", 0.20785, 1,    127.822,  -31.7,    1.0652, 2,    127.838,  148.3,    1.0653, 0, 0, 0, 0
"BUSLVMAI113", 0.20785, 1,    127.926, -151.3,    1.0661, 2,    127.942,   28.7,    1.0662, 0, 0, 0, 0
"BUSLVMAI114", 0.20785, 1,    125.819,  -32.4,    1.0485, 2,    125.835,  147.6,    1.0486, 0, 0, 0, 0
"BUSLVMAI115", 0.20785, 1,    127.672,  -31.8,    1.0639, 2,    127.685,  148.2,     1.064, 0, 0, 0, 0
"BUSLVMAI116", 0.20785, 1,    127.002,   87.9,    1.0583, 2,    127.015,  -92.1,    1.0585, 0, 0, 0, 0
"BUSLVMAI117", 0.20785, 1,      127.3,  -31.9,    1.0608, 2,    127.321,  148.1,     1.061, 0, 0, 0, 0
"BUSLVMAI118", 0.20785, 1,    127.535,  -31.8,    1.0628, 2,    127.551,  148.2,    1.0629, 0, 0, 0, 0
"BUSLVMAI119", 0.20785, 1,     126.83,   87.8,    1.0569, 2,    126.843,  -92.2,     1.057, 0, 0, 0, 0
"BUSLVMAI120", 0.20785, 1,     127.67,  -31.8,    1.0639, 2,    127.685,  148.2,     1.064, 0, 0, 0, 0
"BUSLVMAI121", 0.20785, 1,    127.995, -151.3,    1.0666, 2,    128.011,   28.7,    1.0668, 0, 0, 0, 0
"BUSLVMAI122", 0.20785, 1,    126.993,   87.9,    1.0583, 2,    127.009,  -92.1,    1.0584, 0, 0, 0, 0
"BUSLVMAI123", 0.20785, 1,    127.977, -151.3,    1.0665, 2,    127.991,   28.7,    1.0666, 0, 0, 0, 0
"BUSLVMAI124", 0.20785, 1,    126.429,   87.6,    1.0536, 2,    126.471,  -92.4,    1.0539, 0, 0, 0, 0
"BUSLVMAI125", 0.20785, 1,    126.148,   87.6,    1.0512, 2,    126.165,  -92.4,    1.0514, 0, 0, 0, 0
"BUSLVMAI126", 0.20785, 1,    127.991, -151.3,    1.0666, 2,    128.006,   28.7,    1.0667, 0, 0, 0, 0
"BUSLVMAI127", 0.20785, 1,    126.992,   87.9,    1.0583, 2,    127.006,  -92.1,    1.0584, 0, 0, 0, 0
"BUSLVMAI128", 0.20785, 1,    127.455, -151.5,    1.0621, 2,    127.475,   28.5,    1.0623, 0, 0, 0, 0
"BUSLVMAI129", 0.20785, 1,    127.671,  -31.8,    1.0639, 2,    127.684,  148.2,     1.064, 0, 0, 0, 0
"BUSLVMAI130", 0.20785, 1,    127.882,  -31.7,    1.0657, 2,    127.897,  148.3,    1.0658, 0, 0, 0, 0
"BUSLVMAI131", 0.20785, 1,     126.75,  -32.1,    1.0562, 2,    126.777,  147.9,    1.0565, 0, 0, 0, 0
"BUSLVMAI132", 0.20785, 1,    127.667,  -31.8,    1.0639, 2,     127.68,  148.2,     1.064, 0, 0, 0, 0
"BUSLVMAI133", 0.20785, 1,     127.01,   87.9,    1.0584, 2,    127.027,  -92.1,    1.0586, 0, 0, 0, 0
"BUSLVMAI134", 0.20785, 1,     126.74,   87.7,    1.0562, 2,    126.756,  -92.3,    1.0563, 0, 0, 0, 0
"BUSLVMAI135", 0.20785, 1,    126.973,   87.8,    1.0581, 2,    126.989,  -92.2,    1.0582, 0, 0, 0, 0
"BUSLVMAI136", 0.20785, 1,    127.304,  -31.9,    1.0609, 2,    127.332,  148.0,    1.0611, 0, 0, 0, 0
"BUSLVMAI137", 0.20785, 1,    127.823, -151.3,    1.0652, 2,    127.836,   28.6,    1.0653, 0, 0, 0, 0
"BUSLVMAI138", 0.20785, 1,    127.683, -151.4,     1.064, 2,    127.705,   28.6,    1.0642, 0, 0, 0, 0
"BUSLVMAI139", 0.20785, 1,    127.015, -151.7,    1.0585, 2,    127.033,   28.3,    1.0586, 0, 0, 0, 0
"BUSLVMAI140", 0.20785, 1,    127.467,  -31.8,    1.0622, 2,    127.483,  148.2,    1.0624, 0, 0, 0, 0
"BUSLVMAI141", 0.20785, 1,    127.992, -151.3,    1.0666, 2,    128.006,   28.7,    1.0667, 0, 0, 0, 0
"BUSLVMAI142", 0.20785, 1,     127.62, -151.5,    1.0635, 2,    127.634,   28.5,    1.0636, 0, 0, 0, 0
"BUSLVMAI143", 0.20785, 1,    127.909, -151.3,    1.0659, 2,    127.924,   28.7,     1.066, 0, 0, 0, 0
"BUSLVMAI144", 0.20785, 1,    126.995,   87.9,    1.0583, 2,    127.011,  -92.1,    1.0584, 0, 0, 0, 0
"BUSLVMAI145", 0.20785, 1,    127.768,  -31.7,    1.0647, 2,    127.784,  148.3,    1.0649, 0, 0, 0, 0
"BUSLVMAI146", 0.20785, 1,    127.965, -151.3,    1.0664, 2,    127.979,   28.7,    1.0665, 0, 0, 0, 0
"BUSLVMAI147", 0.20785, 1,    126.794,  -32.1,    1.0566, 2,     126.81,  147.9,    1.0567, 0, 0, 0, 0
"BUSLVMAI148", 0.20785, 1,    126.888,   87.9,    1.0574, 2,    126.904,  -92.1,    1.0575, 0, 0, 0, 0
"BUSLVMAI149", 0.20785, 1,      127.7, -151.4,    1.0642, 2,    127.713,   28.6,    1.0643, 0, 0, 0, 0
"BUSLVMAI150", 0.20785, 1,     126.79,  -32.2,    1.0566, 2,    126.812,  147.8,    1.0568, 0, 0, 0, 0
"BUSLVMAI151", 0.20785, 1,    126.921, -151.6,    1.0577, 2,    126.934,   28.3,    1.0578, 0, 0, 0, 0
"BUSLVMAI152", 0.20785, 1,     127.66,  -31.8,    1.0638, 2,    127.675,  148.2,     1.064, 0, 0, 0, 0
"BUSLVMAI153", 0.20785, 1,    126.219,   87.6,    1.0518, 2,    126.235,  -92.4,     1.052, 0, 0, 0, 0
"BUSLVMAI154", 0.20785, 1,    127.002,   87.9,    1.0584, 2,    127.018,  -92.1,    1.0585, 0, 0, 0, 0
"BUSLVMAI155", 0.20785, 1,    127.388,  -31.9,    1.0616, 2,    127.402,  148.1,    1.0617, 0, 0, 0, 0
"BUSLVMAI156", 0.20785, 1,    127.673,  -31.8,    1.0639, 2,    127.686,  148.2,    1.0641, 0, 0, 0, 0
"BUSLVMAI157", 0.20785, 1,     126.93,  -32.0,    1.0578, 2,    126.946,  148.0,    1.0579, 0, 0, 0, 0
"BUSLVMAI158", 0.20785, 1,     127.94, -151.3,    1.0662, 2,    127.953,   28.7,    1.0663, 0, 0, 0, 0
"BUSLVMAI159", 0.20785, 1,    127.942, -151.3,    1.0662, 2,    127.955,   28.7,    1.0663, 0, 0, 0, 0
"BUSLVMAI160", 0.20785, 1,    127.271,  -31.9,    1.0606, 2,     127.29,  148.1,    1.0608, 0, 0, 0, 0
"BUSLVMAI161", 0.20785, 1,      127.4,  -31.9,    1.0617, 2,    127.425,  148.1,    1.0619, 0, 0, 0, 0
"BUSLVMAI162", 0.20785, 1,    127.433,  -31.8,    1.0619, 2,    127.449,  148.2,    1.0621, 0, 0, 0, 0
"BUSLVMAI163", 0.20785, 1,    127.659,  -31.8,    1.0638, 2,    127.675,  148.2,     1.064, 0, 0, 0, 0
"BUSLVMAI164", 0.20785, 1,    127.905,  -31.7,    1.0659, 2,    127.918,  148.3,     1.066, 0, 0, 0, 0
"BUSLVMAI165", 0.20785, 1,    127.082,  -31.9,     1.059, 2,    127.121,  148.1,    1.0593, 0, 0, 0, 0
"BUSLVMAI166", 0.20785, 1,    127.379,  -31.9,    1.0615, 2,    127.405,  148.1,    1.0617, 0, 0, 0, 0
"BUSLVMAI167", 0.20785, 1,    126.737,   87.7,    1.0561, 2,    126.762,  -92.3,    1.0564, 0, 0, 0, 0
"BUSLVMAI168", 0.20785, 1,    126.894,   87.8,    1.0575, 2,    126.908,  -92.2,    1.0576, 0, 0, 0, 0
"BUSLVMAI169", 0.20785, 1,      125.6,  -32.1,    1.0467, 2,    125.618,  147.9,    1.0468, 0, 0, 0, 0
"BUSLVMAI170", 0.20785, 1,     127.66,  -31.8,    1.0638, 2,    127.674,  148.2,     1.064, 0, 0, 0, 0
"BUSLVMAI171", 0.20785, 1,    127.072,  -31.9,    1.0589, 2,    127.179,  148.1,    1.0598, 0, 0, 0, 0
"BUSLVMAI172", 0.20785, 1,    126.683,   87.7,    1.0557, 2,    126.697,  -92.3,    1.0558, 0, 0, 0, 0
"BUSLVMAI173", 0.20785, 1,     126.99,   87.9,    1.0582, 2,    127.006,  -92.1,    1.0584, 0, 0, 0, 0
"BUSLVMAI174", 0.20785, 1,    127.437,  -31.8,     1.062, 2,     127.46,  148.1,    1.0622, 0, 0, 0, 0
"BUSLVMAI175", 0.20785, 1,     126.97,  -32.1,    1.0581, 2,    126.984,  147.9,    1.0582, 0, 0, 0, 0
"BUSLVMAI176", 0.20785, 1,    126.921,   87.9,    1.0577, 2,    126.934,  -92.1,    1.0578, 0, 0, 0, 0
"BUSLVMAI177", 0.20785, 1,        127,   87.9,    1.0583, 2,    127.013,  -92.1,    1.0584, 0, 0, 0, 0
"BUSLVMAI178", 0.20785, 1,    127.951, -151.3,    1.0663, 2,    127.964,   28.7,    1.0664, 0, 0, 0, 0
"BUSLVMAI179", 0.20785, 1,    127.788, -151.4,    1.0649, 2,    127.802,   28.6,     1.065, 0, 0, 0, 0
"BUSLVMAI180", 0.20785, 1,    127.673,  -31.8,    1.0639, 2,    127.686,  148.2,    1.0641, 0, 0, 0, 0
"BUSLVMAI181", 0.20785, 1,    127.658,  -31.8,    1.0638, 2,    127.672,  148.2,    1.0639, 0, 0, 0, 0
"BUSLVMAI182", 0.20785, 1,        127,  -32.0,    1.0583, 2,    127.115,  148.0,    1.0593, 0, 0, 0, 0
"BUSLVMAI183", 0.20785, 1,    126.894,   87.8,    1.0574, 2,    126.908,  -92.2,    1.0576, 0, 0, 0, 0
"BUSLVMAI184", 0.20785, 1,    127.865,  -31.7,    1.0655, 2,    127.878,  148.3,    1.0657, 0, 0, 0, 0
"BUSLVMAI185", 0.20785, 1,    127.437, -151.5,     1.062, 2,     127.45,   28.5,    1.0621, 0, 0, 0, 0
"BUSLVMAI186", 0.20785, 1,    127.006,   87.9,    1.0584, 2,    127.022,  -92.1,    1.0585, 0, 0, 0, 0
"BUSLVMAI187", 0.20785, 1,     126.88,   87.8,    1.0573, 2,    126.893,  -92.2,    1.0574, 0, 0, 0, 0
"BUSLVMAI188", 0.20785, 1,    127.951, -151.3,    1.0663, 2,    127.967,   28.7,    1.0664, 0, 0, 0, 0
"BUSLVMAI189", 0.20785, 1,    127.668,  -31.8,    1.0639, 2,    127.684,  148.2,     1.064, 0, 0, 0, 0
"BUSLVMAI190", 0.20785, 1,    127.944, -151.3,    1.0662, 2,     127.96,   28.7,    1.0663, 0, 0, 0, 0
"BUSLVMAI191", 0.20785, 1,    127.002,   87.9,    1.0584, 2,    127.018,  -92.1,    1.0585, 0, 0, 0, 0
"BUSLVMAI192", 0.20785, 1,    127.648,  -31.8,    1.0637, 2,    127.664,  148.2,    1.0639, 0, 0, 0, 0
"BUSLVMAI193", 0.20785, 1,    127.662,  -31.8,    1.0639, 2,    127.678,  148.2,     1.064, 0, 0, 0, 0
"BUSLVMAI194", 0.20785, 1,     126.92,   87.9,    1.0577, 2,    126.935,  -92.1,    1.0578, 0, 0, 0, 0
"BUSLVMAI195", 0.20785, 1,    127.005,   87.9,    1.0584, 2,     127.02,  -92.1,    1.0585, 0, 0, 0, 0
"BUSLVMAI196", 0.20785, 1,    127.924, -151.3,     1.066, 2,     127.94,   28.7,    1.0662, 0, 0, 0, 0
"BUSLVMAI197", 0.20785, 1,    127.767, -151.4,    1.0647, 2,    127.782,   28.6,    1.0648, 0, 0, 0, 0
"BUSLVMAI198", 0.20785, 1,    127.925, -151.3,     1.066, 2,     127.94,   28.7,    1.0662, 0, 0, 0, 0
"BUSLVMAI199", 0.20785, 1,    127.925, -151.3,     1.066, 2,    127.941,   28.7,    1.0662, 0, 0, 0, 0
"BUSLVMAI200", 0.20785, 1,    127.649,  -31.8,    1.0637, 2,    127.665,  148.2,    1.0639, 0, 0, 0, 0
...
